9
0 1 C3H6
C                    -0.028497222464     0.871510717746     0.083730735561
C                    -0.743976607414    -0.460481188104    -0.042565101575
C                     0.772473965120    -0.411029609649    -0.041165741487
H                    -0.045512094491     1.365807321290     1.055204433110
H                    -0.049560872033     1.541736265274    -0.775761458884
H                    -1.243005019315    -0.680245615624    -0.986520087475
H                    -1.239058107879    -0.856015008512     0.844464536793
H                     1.286499701398    -0.597758945070    -0.984185468851
H                     1.290634782022    -0.773523064730     0.846799325299
