4
0 1 C2H2
C                    -0.604868699874     0.000000000000     0.000000000000
C                     0.604868699874     0.000000000000     0.000000000000
H                    -1.675739376208     0.000000000000     0.000000000000
H                     1.675739376208     0.000000000000     0.000000000000
