4
0 1 C2H2
C                    -0.615305425173     0.000000000000     0.000000000000
C                     0.615305425173     0.000000000000     0.000000000000
H                    -1.689768035335     0.000000000000     0.000000000000
H                     1.689768035335     0.000000000000     0.000000000000
